Version 4
SHEET 1 904 680
WIRE 176 -32 80 -32
WIRE 80 -16 80 -32
WIRE 80 -16 0 -16
WIRE 176 48 176 -32
WIRE 0 96 0 64
WIRE 208 128 176 128
WIRE 272 128 208 128
WIRE 208 144 208 128
WIRE 272 144 272 128
WIRE 272 240 272 208
WIRE 208 320 208 208
WIRE 272 320 208 320
WIRE 208 336 208 320
FLAG 0 96 0
FLAG 208 336 0
SYMBOL ind 160 32 R0
SYMATTR InstName L1
SYMATTR Value 220µ
SYMATTR SpiceLine Rser=10m
SYMBOL cap 192 144 R0
SYMATTR InstName C1
SYMATTR Value 10µ
SYMATTR SpiceLine Rser=0.8
SYMBOL cap 256 144 R0
SYMATTR InstName C2
SYMATTR Value 100µ
SYMBOL res 256 224 R0
SYMATTR InstName R2
SYMATTR Value {R}
SYMBOL voltage 0 -32 R0
WINDOW 3 24 152 Left 2
WINDOW 123 24 124 Left 2
WINDOW 39 0 0 Left 0
SYMATTR InstName V1
SYMATTR Value PULSE(0 24 6u 1p 1p 6u 12u)
SYMATTR Value2 AC 1
TEXT -34 360 Left 2 !.tran 0 101m 100m
TEXT 472 192 Left 2 ;.step param R list 10k 100 10 1
TEXT 472 240 Left 2 !.param R 10
