Version 4
SHEET 1 904 680
WIRE 96 112 -16 112
WIRE 240 112 176 112
WIRE -16 128 -16 112
WIRE 240 144 240 112
WIRE -16 240 -16 208
WIRE 128 240 -16 240
WIRE 240 240 240 208
WIRE 240 240 128 240
WIRE 128 256 128 240
FLAG 128 256 0
SYMBOL voltage -16 112 R0
WINDOW 3 -204 106 Left 2
WINDOW 123 0 0 Left 0
WINDOW 39 0 0 Left 0
SYMATTR InstName V1
SYMATTR Value PULSE(0 1 1m 1n 1n .9 1)
SYMBOL ind 192 96 R90
WINDOW 0 5 56 VBottom 2
WINDOW 3 32 56 VTop 2
SYMATTR InstName L1
SYMATTR Value 120µ
SYMATTR SpiceLine Rser=28m
SYMBOL cap 224 144 R0
SYMATTR InstName C1
SYMATTR Value 22µ
SYMATTR SpiceLine Rser=250m
TEXT -32 360 Left 2 !.tran 10m
